
CM 
CE
GW	1	13	0	0	0	0.021	0.021	0	0.001
GW	2	13	0	0	0	0	0.030	0	0.001
GW	3	13	0	0	0	-0.021	0.021	0	0.001
GW	4	13	0	0	0	-0.030	0	0	0.001
GW	5	13	0	0	0	-0.021	-0.021	0	0.001
GW	6	13	0	0	0	0	-0.030	0	0.001
GW	7	13	0	0	0	0.021	-0.021	0	0.001
GW	8	13	0	0	0	0.030	0	0	0.001
GW	9	21	0	0	-0.005	0.018	0.018	-0.043	0.001
GW	10	21	0	0	-0.005	0	0.025	-0.043	0.001
GW	11	21	0	0	-0.005	-0.018	0.018	-0.043	0.001
GW	12	21	0	0	-0.005	-0.025	0	-0.043	0.001
GW	13	21	0	0	-0.005	-0.018	-0.018	-0.043	0.001
GW	14	21	0	0	-0.005	0	-0.025	-0.043	0.001
GW	15	21	0	0	-0.005	0.018	-0.018	-0.043	0.001
GW	16	21	0	0	-0.005	0.025	0	-0.043	0.001
GW	17	1	0	0	0	0	0	-0.005	0.001
GE	0
GN	-1
EK
FR	0	0	0	0	3000	0
EN